<?xml version='1.0' encoding='UTF-8'?>
<!-- generated on 2024-02-19 19:18:17 by Eclipse SUMO netconvert Version 1.18.0
<configuration xmlns:xsi="http://www.w3.org/2001/XMLSchema-instance" xsi:noNamespaceSchemaLocation="http://sumo.dlr.de/xsd/netconvertConfiguration.xsd">

    <input>
        <type-files value="D:\Carla\Co-Simulation\Sumo\util\data/opendrive_netconvert.typ.xml"/>
        <opendrive-files value="exp1.xodr"/>
    </input>

    <output>
        <output-file value="C:\Users\Eddy\AppData\Local\Temp\tmplrab_ets\exp1.net.xml"/>
        <output.original-names value="true"/>
    </output>

    <processing>
        <geometry.remove value="true"/>
        <geometry.min-radius.fix value="true"/>
    </processing>

    <tls_building>
        <tls.discard-loaded value="true"/>
    </tls_building>

    <junctions>
        <no-turnarounds.except-deadend value="true"/>
    </junctions>

    <formats>
        <opendrive.import-all-lanes value="true"/>
        <opendrive.curve-resolution value="1"/>
    </formats>

</configuration>
-->
<net xmlns:xsi="http://www.w3.org/2001/XMLSchema-instance" version="1.16" junctionCornerDetail="5" rectangularLaneCut="true" limitTurnSpeed="5.50" xsi:noNamespaceSchemaLocation="http://sumo.dlr.de/xsd/net_file.xsd">
  <location netOffset="2014.00,2014.00" convBoundary="0.00,0.00,4028.00,4028.00" origBoundary="-2000.00,-2000.00,2000.00,2000.00" projParameter="!"/>
  <type id="driving" priority="1" speed="13.89" disallow="pedestrian tram rail_urban rail rail_electric rail_fast ship" width="3.65"/>
  <edge id=":103_0" function="internal">
    <lane id=":103_0_0" index="0" disallow="pedestrian tram rail_urban rail rail_electric rail_fast ship" speed="23.47" length="30.17" width="3.50" shape="2116.10,3826.25 2106.55,3826.67 2099.37,3828.00 2093.36,3830.29 2087.35,3833.64">
      <param key="origId" value="106_-1"/>
    </lane>
    <lane id=":103_0_1" index="1" disallow="pedestrian tram rail_urban rail rail_electric rail_fast ship" speed="23.47" length="32.07" width="3.50" shape="2116.10,3822.75 2105.87,3823.25 2098.10,3824.75 2091.69,3827.22 2085.53,3830.65">
      <param key="origId" value="107_-1"/>
    </lane>
  </edge>
  <edge id=":103_2" function="internal">
    <lane id=":103_2_0" index="0" disallow="pedestrian tram rail_urban rail rail_electric rail_fast ship" speed="17.88" length="31.47" width="3.50" shape="2116.10,3822.75 2084.63,3822.75">
      <param key="origId" value="104_-4"/>
    </lane>
    <lane id=":103_2_1" index="1" disallow="pedestrian tram rail_urban rail rail_electric rail_fast ship" speed="17.88" length="31.47" width="3.50" shape="2116.10,3819.25 2084.63,3819.25">
      <param key="origId" value="104_-3"/>
    </lane>
    <lane id=":103_2_2" index="2" disallow="pedestrian tram rail_urban rail rail_electric rail_fast ship" speed="17.88" length="31.47" width="3.50" shape="2116.10,3815.75 2084.63,3815.75">
      <param key="origId" value="104_-2"/>
    </lane>
    <lane id=":103_2_3" index="3" disallow="all" speed="17.88" length="31.47" width="3.50" shape="2116.10,3812.25 2084.63,3812.25">
      <param key="origId" value="104_-1"/>
    </lane>
  </edge>
  <edge id=":108_0" function="internal">
    <lane id=":108_0_0" index="0" disallow="pedestrian tram rail_urban rail rail_electric rail_fast ship" speed="17.88" length="30.19" width="3.50" shape="4012.25,2116.10 4011.83,2106.54 4010.52,2099.35 4008.22,2093.34 4004.86,2087.34">
      <param key="origId" value="109_1"/>
    </lane>
    <lane id=":108_0_1" index="1" disallow="pedestrian tram rail_urban rail rail_electric rail_fast ship" speed="17.88" length="32.10" width="3.50" shape="4015.75,2116.10 4015.25,2105.85 4013.76,2098.08 4011.28,2091.66 4007.84,2085.51">
      <param key="origId" value="110_1"/>
    </lane>
  </edge>
  <edge id=":108_2" function="internal">
    <lane id=":108_2_0" index="0" disallow="pedestrian tram rail_urban rail rail_electric rail_fast ship" speed="17.88" length="31.47" width="3.50" shape="4015.75,2116.10 4015.75,2084.63">
      <param key="origId" value="111_4"/>
    </lane>
    <lane id=":108_2_1" index="1" disallow="pedestrian tram rail_urban rail rail_electric rail_fast ship" speed="17.88" length="31.47" width="3.50" shape="4019.25,2116.10 4019.25,2084.63">
      <param key="origId" value="111_3"/>
    </lane>
    <lane id=":108_2_2" index="2" disallow="pedestrian tram rail_urban rail rail_electric rail_fast ship" speed="17.88" length="31.47" width="3.50" shape="4022.75,2116.10 4022.75,2084.63">
      <param key="origId" value="111_2"/>
    </lane>
    <lane id=":108_2_3" index="3" disallow="all" speed="17.88" length="31.47" width="3.50" shape="4026.25,2116.10 4026.25,2084.63">
      <param key="origId" value="111_1"/>
    </lane>
  </edge>
  <edge id=":113_0" function="internal">
    <lane id=":113_0_0" index="0" disallow="pedestrian tram rail_urban rail rail_electric rail_fast ship" speed="17.88" length="31.12" width="3.50" shape="3833.64,987.35 3830.29,993.36 3828.00,999.37 3826.67,1006.55 3826.25,1016.10">
      <param key="origId" value="117_-1"/>
    </lane>
    <lane id=":113_0_1" index="1" disallow="pedestrian tram rail_urban rail rail_electric rail_fast ship" speed="17.88" length="31.12" width="3.50" shape="3830.65,985.53 3827.22,991.70 3824.75,998.10 3823.25,1005.87 3822.75,1016.10">
      <param key="origId" value="116_-1"/>
    </lane>
  </edge>
  <edge id=":113_2" function="internal">
    <lane id=":113_2_0" index="0" disallow="pedestrian tram rail_urban rail rail_electric rail_fast ship" speed="17.88" length="31.47" width="3.50" shape="3822.75,984.63 3822.75,1016.10">
      <param key="origId" value="114_-4"/>
    </lane>
    <lane id=":113_2_1" index="1" disallow="pedestrian tram rail_urban rail rail_electric rail_fast ship" speed="17.88" length="31.47" width="3.50" shape="3819.25,984.63 3819.25,1016.10">
      <param key="origId" value="114_-3"/>
    </lane>
    <lane id=":113_2_2" index="2" disallow="pedestrian tram rail_urban rail rail_electric rail_fast ship" speed="17.88" length="31.47" width="3.50" shape="3815.75,984.63 3815.75,1016.10">
      <param key="origId" value="114_-2"/>
    </lane>
    <lane id=":113_2_3" index="3" disallow="all" speed="17.88" length="31.47" width="3.50" shape="3812.25,984.63 3812.25,1016.10">
      <param key="origId" value="114_-1"/>
    </lane>
  </edge>
  <edge id=":118_0" function="internal">
    <lane id=":118_0_0" index="0" disallow="pedestrian tram rail_urban rail rail_electric rail_fast ship" speed="23.47" length="31.12" width="3.50" shape="3040.65,3833.64 3034.64,3830.29 3028.63,3828.00 3021.45,3826.67 3011.90,3826.25">
      <param key="origId" value="119_-1"/>
    </lane>
    <lane id=":118_0_1" index="1" disallow="pedestrian tram rail_urban rail rail_electric rail_fast ship" speed="23.47" length="31.12" width="3.50" shape="3042.47,3830.65 3036.31,3827.22 3029.90,3824.75 3022.13,3823.25 3011.90,3822.75">
      <param key="origId" value="120_-1"/>
    </lane>
  </edge>
  <edge id=":118_2" function="internal">
    <lane id=":118_2_0" index="0" disallow="pedestrian tram rail_urban rail rail_electric rail_fast ship" speed="17.88" length="31.47" width="3.50" shape="3043.37,3822.75 3011.90,3822.75">
      <param key="origId" value="121_-4"/>
    </lane>
    <lane id=":118_2_1" index="1" disallow="pedestrian tram rail_urban rail rail_electric rail_fast ship" speed="17.88" length="31.47" width="3.50" shape="3043.37,3819.25 3011.90,3819.25">
      <param key="origId" value="121_-3"/>
    </lane>
    <lane id=":118_2_2" index="2" disallow="pedestrian tram rail_urban rail rail_electric rail_fast ship" speed="17.88" length="31.47" width="3.50" shape="3043.37,3815.75 3011.90,3815.75">
      <param key="origId" value="121_-2"/>
    </lane>
    <lane id=":118_2_3" index="3" disallow="all" speed="17.88" length="31.47" width="3.50" shape="3043.37,3812.25 3011.90,3812.25">
      <param key="origId" value="121_-1"/>
    </lane>
  </edge>
  <edge id=":123_0" function="internal">
    <lane id=":123_0_0" index="0" disallow="pedestrian tram rail_urban rail rail_electric rail_fast ship" speed="23.47" length="30.19" width="3.50" shape="3011.90,4012.25 3021.46,4011.83 3028.65,4010.52 3034.66,4008.22 3040.66,4004.86">
      <param key="origId" value="124_1"/>
    </lane>
    <lane id=":123_0_1" index="1" disallow="pedestrian tram rail_urban rail rail_electric rail_fast ship" speed="23.47" length="32.10" width="3.50" shape="3011.90,4015.75 3022.15,4015.25 3029.92,4013.76 3036.34,4011.28 3042.49,4007.84">
      <param key="origId" value="125_1"/>
    </lane>
  </edge>
  <edge id=":123_2" function="internal">
    <lane id=":123_2_0" index="0" disallow="pedestrian tram rail_urban rail rail_electric rail_fast ship" speed="17.88" length="31.47" width="3.50" shape="3011.90,4015.75 3043.37,4015.75">
      <param key="origId" value="126_4"/>
    </lane>
    <lane id=":123_2_1" index="1" disallow="pedestrian tram rail_urban rail rail_electric rail_fast ship" speed="17.88" length="31.47" width="3.50" shape="3011.90,4019.25 3043.37,4019.25">
      <param key="origId" value="126_3"/>
    </lane>
    <lane id=":123_2_2" index="2" disallow="pedestrian tram rail_urban rail rail_electric rail_fast ship" speed="17.88" length="31.47" width="3.50" shape="3011.90,4022.75 3043.37,4022.75">
      <param key="origId" value="126_2"/>
    </lane>
    <lane id=":123_2_3" index="3" disallow="all" speed="17.88" length="31.47" width="3.50" shape="3011.90,4026.25 3043.37,4026.25">
      <param key="origId" value="126_1"/>
    </lane>
  </edge>
  <edge id=":128_0" function="internal">
    <lane id=":128_0_0" index="0" disallow="pedestrian tram rail_urban rail rail_electric rail_fast ship" speed="23.47" length="31.14" width="3.50" shape="23.14,987.34 19.78,993.34 17.48,999.35 16.17,1006.54 15.75,1016.10">
      <param key="origId" value="131_1"/>
    </lane>
    <lane id=":128_0_1" index="1" disallow="pedestrian tram rail_urban rail rail_electric rail_fast ship" speed="23.47" length="31.14" width="3.50" shape="20.16,985.51 16.72,991.66 14.24,998.08 12.75,1005.85 12.25,1016.10">
      <param key="origId" value="132_1"/>
    </lane>
  </edge>
  <edge id=":128_2" function="internal">
    <lane id=":128_2_0" index="0" disallow="pedestrian tram rail_urban rail rail_electric rail_fast ship" speed="17.88" length="31.47" width="3.50" shape="12.25,984.63 12.25,1016.10">
      <param key="origId" value="129_4"/>
    </lane>
    <lane id=":128_2_1" index="1" disallow="pedestrian tram rail_urban rail rail_electric rail_fast ship" speed="17.88" length="31.47" width="3.50" shape="8.75,984.63 8.75,1016.10">
      <param key="origId" value="129_3"/>
    </lane>
    <lane id=":128_2_2" index="2" disallow="pedestrian tram rail_urban rail rail_electric rail_fast ship" speed="17.88" length="31.47" width="3.50" shape="5.25,984.63 5.25,1016.10">
      <param key="origId" value="129_2"/>
    </lane>
    <lane id=":128_2_3" index="3" disallow="all" speed="17.88" length="31.47" width="3.50" shape="1.75,984.63 1.75,1016.10">
      <param key="origId" value="129_1"/>
    </lane>
  </edge>
  <edge id=":133_0" function="internal">
    <lane id=":133_0_0" index="0" disallow="pedestrian tram rail_urban rail rail_electric rail_fast ship" speed="17.88" length="31.47" width="3.50" shape="205.25,1943.37 205.25,1911.90">
      <param key="origId" value="134_-4"/>
    </lane>
    <lane id=":133_0_1" index="1" disallow="pedestrian tram rail_urban rail rail_electric rail_fast ship" speed="17.88" length="31.47" width="3.50" shape="208.75,1943.37 208.75,1911.90">
      <param key="origId" value="134_-3"/>
    </lane>
    <lane id=":133_0_2" index="2" disallow="pedestrian tram rail_urban rail rail_electric rail_fast ship" speed="17.88" length="31.47" width="3.50" shape="212.25,1943.37 212.25,1911.90">
      <param key="origId" value="134_-2"/>
    </lane>
    <lane id=":133_0_3" index="3" disallow="all" speed="17.88" length="31.47" width="3.50" shape="215.75,1943.37 215.75,1911.90">
      <param key="origId" value="134_-1"/>
    </lane>
  </edge>
  <edge id=":133_4" function="internal">
    <lane id=":133_4_0" index="0" disallow="pedestrian tram rail_urban rail rail_electric rail_fast ship" speed="23.47" length="31.12" width="3.50" shape="194.36,1940.65 197.71,1934.64 200.00,1928.63 201.33,1921.45 201.75,1911.90">
      <param key="origId" value="137_-1"/>
    </lane>
    <lane id=":133_4_1" index="1" disallow="pedestrian tram rail_urban rail rail_electric rail_fast ship" speed="23.47" length="31.12" width="3.50" shape="197.35,1942.47 200.78,1936.31 203.25,1929.90 204.75,1922.13 205.25,1911.90">
      <param key="origId" value="136_-1"/>
    </lane>
  </edge>
  <edge id=":138_0" function="internal">
    <lane id=":138_0_0" index="0" disallow="pedestrian tram rail_urban rail rail_electric rail_fast ship" speed="23.47" length="30.17" width="3.50" shape="201.75,1016.10 201.33,1006.55 200.00,999.37 197.71,993.36 194.36,987.35">
      <param key="origId" value="141_-1"/>
    </lane>
    <lane id=":138_0_1" index="1" disallow="pedestrian tram rail_urban rail rail_electric rail_fast ship" speed="23.47" length="32.07" width="3.50" shape="205.25,1016.10 204.75,1005.87 203.25,998.10 200.78,991.69 197.35,985.53">
      <param key="origId" value="142_-1"/>
    </lane>
  </edge>
  <edge id=":138_2" function="internal">
    <lane id=":138_2_0" index="0" disallow="pedestrian tram rail_urban rail rail_electric rail_fast ship" speed="17.88" length="31.47" width="3.50" shape="205.25,1016.10 205.25,984.63">
      <param key="origId" value="139_-4"/>
    </lane>
    <lane id=":138_2_1" index="1" disallow="pedestrian tram rail_urban rail rail_electric rail_fast ship" speed="17.88" length="31.47" width="3.50" shape="208.75,1016.10 208.75,984.63">
      <param key="origId" value="139_-3"/>
    </lane>
    <lane id=":138_2_2" index="2" disallow="pedestrian tram rail_urban rail rail_electric rail_fast ship" speed="17.88" length="31.47" width="3.50" shape="212.25,1016.10 212.25,984.63">
      <param key="origId" value="139_-2"/>
    </lane>
    <lane id=":138_2_3" index="3" disallow="all" speed="17.88" length="31.47" width="3.50" shape="215.75,1016.10 215.75,984.63">
      <param key="origId" value="139_-1"/>
    </lane>
  </edge>
  <edge id=":143_0" function="internal">
    <lane id=":143_0_0" index="0" disallow="pedestrian tram rail_urban rail rail_electric rail_fast ship" speed="23.47" length="30.17" width="3.50" shape="1911.90,201.75 1921.45,201.33 1928.63,200.00 1934.64,197.71 1940.65,194.36">
      <param key="origId" value="144_-1"/>
    </lane>
    <lane id=":143_0_1" index="1" disallow="pedestrian tram rail_urban rail rail_electric rail_fast ship" speed="23.47" length="32.07" width="3.50" shape="1911.90,205.25 1922.13,204.75 1929.90,203.25 1936.30,200.78 1942.47,197.35">
      <param key="origId" value="145_-1"/>
    </lane>
  </edge>
  <edge id=":143_2" function="internal">
    <lane id=":143_2_0" index="0" disallow="pedestrian tram rail_urban rail rail_electric rail_fast ship" speed="17.88" length="31.47" width="3.50" shape="1911.90,205.25 1943.37,205.25">
      <param key="origId" value="146_-4"/>
    </lane>
    <lane id=":143_2_1" index="1" disallow="pedestrian tram rail_urban rail rail_electric rail_fast ship" speed="17.88" length="31.47" width="3.50" shape="1911.90,208.75 1943.37,208.75">
      <param key="origId" value="146_-3"/>
    </lane>
    <lane id=":143_2_2" index="2" disallow="pedestrian tram rail_urban rail rail_electric rail_fast ship" speed="17.88" length="31.47" width="3.50" shape="1911.90,212.25 1943.37,212.25">
      <param key="origId" value="146_-2"/>
    </lane>
    <lane id=":143_2_3" index="3" disallow="all" speed="17.88" length="31.47" width="3.50" shape="1911.90,215.75 1943.37,215.75">
      <param key="origId" value="146_-1"/>
    </lane>
  </edge>
  <edge id=":148_0" function="internal">
    <lane id=":148_0_0" index="0" disallow="pedestrian tram rail_urban rail rail_electric rail_fast ship" speed="17.88" length="31.47" width="3.50" shape="4015.75,3043.37 4015.75,3011.90">
      <param key="origId" value="149_4"/>
    </lane>
    <lane id=":148_0_1" index="1" disallow="pedestrian tram rail_urban rail rail_electric rail_fast ship" speed="17.88" length="31.47" width="3.50" shape="4019.25,3043.37 4019.25,3011.90">
      <param key="origId" value="149_3"/>
    </lane>
    <lane id=":148_0_2" index="2" disallow="pedestrian tram rail_urban rail rail_electric rail_fast ship" speed="17.88" length="31.47" width="3.50" shape="4022.75,3043.37 4022.75,3011.90">
      <param key="origId" value="149_2"/>
    </lane>
    <lane id=":148_0_3" index="3" disallow="all" speed="17.88" length="31.47" width="3.50" shape="4026.25,3043.37 4026.25,3011.90">
      <param key="origId" value="149_1"/>
    </lane>
  </edge>
  <edge id=":148_4" function="internal">
    <lane id=":148_4_0" index="0" disallow="pedestrian tram rail_urban rail rail_electric rail_fast ship" speed="17.88" length="31.14" width="3.50" shape="4004.86,3040.66 4008.22,3034.66 4010.52,3028.65 4011.83,3021.46 4012.25,3011.90">
      <param key="origId" value="152_1"/>
    </lane>
    <lane id=":148_4_1" index="1" disallow="pedestrian tram rail_urban rail rail_electric rail_fast ship" speed="17.88" length="31.14" width="3.50" shape="4007.84,3042.49 4011.28,3036.34 4013.76,3029.92 4015.25,3022.15 4015.75,3011.90">
      <param key="origId" value="151_1"/>
    </lane>
  </edge>
  <edge id=":153_0" function="internal">
    <lane id=":153_0_0" index="0" disallow="pedestrian tram rail_urban rail rail_electric rail_fast ship" speed="23.47" length="30.19" width="3.50" shape="1016.10,15.75 1006.54,16.17 999.35,17.48 993.34,19.78 987.34,23.14">
      <param key="origId" value="156_1"/>
    </lane>
    <lane id=":153_0_1" index="1" disallow="pedestrian tram rail_urban rail rail_electric rail_fast ship" speed="23.47" length="32.10" width="3.50" shape="1016.10,12.25 1005.85,12.75 998.08,14.24 991.66,16.72 985.51,20.16">
      <param key="origId" value="157_1"/>
    </lane>
  </edge>
  <edge id=":153_2" function="internal">
    <lane id=":153_2_0" index="0" disallow="pedestrian tram rail_urban rail rail_electric rail_fast ship" speed="17.88" length="31.47" width="3.50" shape="1016.10,12.25 984.63,12.25">
      <param key="origId" value="154_4"/>
    </lane>
    <lane id=":153_2_1" index="1" disallow="pedestrian tram rail_urban rail rail_electric rail_fast ship" speed="17.88" length="31.47" width="3.50" shape="1016.10,8.75 984.63,8.75">
      <param key="origId" value="154_3"/>
    </lane>
    <lane id=":153_2_2" index="2" disallow="pedestrian tram rail_urban rail rail_electric rail_fast ship" speed="17.88" length="31.47" width="3.50" shape="1016.10,5.25 984.63,5.25">
      <param key="origId" value="154_2"/>
    </lane>
    <lane id=":153_2_3" index="3" disallow="all" speed="17.88" length="31.47" width="3.50" shape="1016.10,1.75 984.63,1.75">
      <param key="origId" value="154_1"/>
    </lane>
  </edge>
  <edge id=":158_0" function="internal">
    <lane id=":158_0_0" index="0" disallow="pedestrian tram rail_urban rail rail_electric rail_fast ship" speed="17.88" length="31.47" width="3.50" shape="4015.75,1943.37 4015.75,1911.90">
      <param key="origId" value="161_4"/>
    </lane>
    <lane id=":158_0_1" index="1" disallow="pedestrian tram rail_urban rail rail_electric rail_fast ship" speed="17.88" length="31.47" width="3.50" shape="4019.25,1943.37 4019.25,1911.90">
      <param key="origId" value="161_3"/>
    </lane>
    <lane id=":158_0_2" index="2" disallow="pedestrian tram rail_urban rail rail_electric rail_fast ship" speed="17.88" length="31.47" width="3.50" shape="4022.75,1943.37 4022.75,1911.90">
      <param key="origId" value="161_2"/>
    </lane>
    <lane id=":158_0_3" index="3" disallow="all" speed="17.88" length="31.47" width="3.50" shape="4026.25,1943.37 4026.25,1911.90">
      <param key="origId" value="161_1"/>
    </lane>
  </edge>
  <edge id=":158_4" function="internal">
    <lane id=":158_4_0" index="0" disallow="pedestrian tram rail_urban rail rail_electric rail_fast ship" speed="17.88" length="31.14" width="3.50" shape="4004.86,1940.66 4008.22,1934.66 4010.52,1928.65 4011.83,1921.46 4012.25,1911.90">
      <param key="origId" value="159_1"/>
    </lane>
    <lane id=":158_4_1" index="1" disallow="pedestrian tram rail_urban rail rail_electric rail_fast ship" speed="17.88" length="31.14" width="3.50" shape="4007.84,1942.49 4011.28,1936.34 4013.76,1929.92 4015.25,1922.15 4015.75,1911.90">
      <param key="origId" value="160_1"/>
    </lane>
  </edge>
  <edge id=":163_0" function="internal">
    <lane id=":163_0_0" index="0" disallow="pedestrian tram rail_urban rail rail_electric rail_fast ship" speed="23.47" length="30.19" width="3.50" shape="15.75,1911.90 16.17,1921.46 17.48,1928.65 19.78,1934.66 23.14,1940.66">
      <param key="origId" value="167_1"/>
    </lane>
    <lane id=":163_0_1" index="1" disallow="pedestrian tram rail_urban rail rail_electric rail_fast ship" speed="23.47" length="32.10" width="3.50" shape="12.25,1911.90 12.75,1922.15 14.24,1929.92 16.72,1936.34 20.16,1942.49">
      <param key="origId" value="166_1"/>
    </lane>
  </edge>
  <edge id=":163_2" function="internal">
    <lane id=":163_2_0" index="0" disallow="pedestrian tram rail_urban rail rail_electric rail_fast ship" speed="17.88" length="31.47" width="3.50" shape="12.25,1911.90 12.25,1943.37">
      <param key="origId" value="164_4"/>
    </lane>
    <lane id=":163_2_1" index="1" disallow="pedestrian tram rail_urban rail rail_electric rail_fast ship" speed="17.88" length="31.47" width="3.50" shape="8.75,1911.90 8.75,1943.37">
      <param key="origId" value="164_3"/>
    </lane>
    <lane id=":163_2_2" index="2" disallow="pedestrian tram rail_urban rail rail_electric rail_fast ship" speed="17.88" length="31.47" width="3.50" shape="5.25,1911.90 5.25,1943.37">
      <param key="origId" value="164_2"/>
    </lane>
    <lane id=":163_2_3" index="3" disallow="all" speed="17.88" length="31.47" width="3.50" shape="1.75,1911.90 1.75,1943.37">
      <param key="origId" value="164_1"/>
    </lane>
  </edge>
  <edge id=":168_0" function="internal">
    <lane id=":168_0_0" index="0" disallow="pedestrian tram rail_urban rail rail_electric rail_fast ship" speed="23.47" length="30.17" width="3.50" shape="1016.10,3826.25 1006.55,3826.67 999.37,3828.00 993.36,3830.29 987.35,3833.64">
      <param key="origId" value="170_-1"/>
    </lane>
    <lane id=":168_0_1" index="1" disallow="pedestrian tram rail_urban rail rail_electric rail_fast ship" speed="23.47" length="32.07" width="3.50" shape="1016.10,3822.75 1005.87,3823.25 998.10,3824.75 991.69,3827.22 985.53,3830.65">
      <param key="origId" value="169_-1"/>
    </lane>
  </edge>
  <edge id=":168_2" function="internal">
    <lane id=":168_2_0" index="0" disallow="pedestrian tram rail_urban rail rail_electric rail_fast ship" speed="17.88" length="31.47" width="3.50" shape="1016.10,3822.75 984.63,3822.75">
      <param key="origId" value="171_-4"/>
    </lane>
    <lane id=":168_2_1" index="1" disallow="pedestrian tram rail_urban rail rail_electric rail_fast ship" speed="17.88" length="31.47" width="3.50" shape="1016.10,3819.25 984.63,3819.25">
      <param key="origId" value="171_-3"/>
    </lane>
    <lane id=":168_2_2" index="2" disallow="pedestrian tram rail_urban rail rail_electric rail_fast ship" speed="17.88" length="31.47" width="3.50" shape="1016.10,3815.75 984.63,3815.75">
      <param key="origId" value="171_-2"/>
    </lane>
    <lane id=":168_2_3" index="3" disallow="all" speed="17.88" length="31.47" width="3.50" shape="1016.10,3812.25 984.63,3812.25">
      <param key="origId" value="171_-1"/>
    </lane>
  </edge>
  <edge id=":173_0" function="internal">
    <lane id=":173_0_0" index="0" disallow="pedestrian tram rail_urban rail rail_electric rail_fast ship" speed="17.88" length="31.12" width="3.50" shape="3833.64,2087.35 3830.29,2093.36 3828.00,2099.37 3826.67,2106.55 3826.25,2116.10">
      <param key="origId" value="175_-1"/>
    </lane>
    <lane id=":173_0_1" index="1" disallow="pedestrian tram rail_urban rail rail_electric rail_fast ship" speed="17.88" length="31.12" width="3.50" shape="3830.65,2085.53 3827.22,2091.69 3824.75,2098.10 3823.25,2105.87 3822.75,2116.10">
      <param key="origId" value="174_-1"/>
    </lane>
  </edge>
  <edge id=":173_2" function="internal">
    <lane id=":173_2_0" index="0" disallow="pedestrian tram rail_urban rail rail_electric rail_fast ship" speed="17.88" length="31.47" width="3.50" shape="3822.75,2084.63 3822.75,2116.10">
      <param key="origId" value="176_-4"/>
    </lane>
    <lane id=":173_2_1" index="1" disallow="pedestrian tram rail_urban rail rail_electric rail_fast ship" speed="17.88" length="31.47" width="3.50" shape="3819.25,2084.63 3819.25,2116.10">
      <param key="origId" value="176_-3"/>
    </lane>
    <lane id=":173_2_2" index="2" disallow="pedestrian tram rail_urban rail rail_electric rail_fast ship" speed="17.88" length="31.47" width="3.50" shape="3815.75,2084.63 3815.75,2116.10">
      <param key="origId" value="176_-2"/>
    </lane>
    <lane id=":173_2_3" index="3" disallow="all" speed="17.88" length="31.47" width="3.50" shape="3812.25,2084.63 3812.25,2116.10">
      <param key="origId" value="176_-1"/>
    </lane>
  </edge>
  <edge id=":178_0" function="internal">
    <lane id=":178_0_0" index="0" disallow="pedestrian tram rail_urban rail rail_electric rail_fast ship" speed="17.88" length="30.17" width="3.50" shape="201.75,2116.10 201.33,2106.55 200.00,2099.37 197.71,2093.36 194.36,2087.35">
      <param key="origId" value="182_-1"/>
    </lane>
    <lane id=":178_0_1" index="1" disallow="pedestrian tram rail_urban rail rail_electric rail_fast ship" speed="17.88" length="32.07" width="3.50" shape="205.25,2116.10 204.75,2105.87 203.25,2098.10 200.78,2091.69 197.35,2085.53">
      <param key="origId" value="181_-1"/>
    </lane>
  </edge>
  <edge id=":178_2" function="internal">
    <lane id=":178_2_0" index="0" disallow="pedestrian tram rail_urban rail rail_electric rail_fast ship" speed="17.88" length="31.47" width="3.50" shape="205.25,2116.10 205.25,2084.63">
      <param key="origId" value="179_-4"/>
    </lane>
    <lane id=":178_2_1" index="1" disallow="pedestrian tram rail_urban rail rail_electric rail_fast ship" speed="17.88" length="31.47" width="3.50" shape="208.75,2116.10 208.75,2084.63">
      <param key="origId" value="179_-3"/>
    </lane>
    <lane id=":178_2_2" index="2" disallow="pedestrian tram rail_urban rail rail_electric rail_fast ship" speed="17.88" length="31.47" width="3.50" shape="212.25,2116.10 212.25,2084.63">
      <param key="origId" value="179_-2"/>
    </lane>
    <lane id=":178_2_3" index="3" disallow="all" speed="17.88" length="31.47" width="3.50" shape="215.75,2116.10 215.75,2084.63">
      <param key="origId" value="179_-1"/>
    </lane>
  </edge>
  <edge id=":183_0" function="internal">
    <lane id=":183_0_0" index="0" disallow="pedestrian tram rail_urban rail rail_electric rail_fast ship" speed="23.47" length="31.14" width="3.50" shape="3040.66,23.14 3034.66,19.78 3028.65,17.48 3021.46,16.17 3011.90,15.75">
      <param key="origId" value="187_1"/>
    </lane>
    <lane id=":183_0_1" index="1" disallow="pedestrian tram rail_urban rail rail_electric rail_fast ship" speed="23.47" length="31.14" width="3.50" shape="3042.49,20.16 3036.34,16.72 3029.92,14.24 3022.15,12.75 3011.90,12.25">
      <param key="origId" value="186_1"/>
    </lane>
  </edge>
  <edge id=":183_2" function="internal">
    <lane id=":183_2_0" index="0" disallow="pedestrian tram rail_urban rail rail_electric rail_fast ship" speed="17.88" length="31.47" width="3.50" shape="3043.37,12.25 3011.90,12.25">
      <param key="origId" value="184_4"/>
    </lane>
    <lane id=":183_2_1" index="1" disallow="pedestrian tram rail_urban rail rail_electric rail_fast ship" speed="17.88" length="31.47" width="3.50" shape="3043.37,8.75 3011.90,8.75">
      <param key="origId" value="184_3"/>
    </lane>
    <lane id=":183_2_2" index="2" disallow="pedestrian tram rail_urban rail rail_electric rail_fast ship" speed="17.88" length="31.47" width="3.50" shape="3043.37,5.25 3011.90,5.25">
      <param key="origId" value="184_2"/>
    </lane>
    <lane id=":183_2_3" index="3" disallow="all" speed="17.88" length="31.47" width="3.50" shape="3043.37,1.75 3011.90,1.75">
      <param key="origId" value="184_1"/>
    </lane>
  </edge>
  <edge id=":188_0" function="internal">
    <lane id=":188_0_0" index="0" disallow="pedestrian tram rail_urban rail rail_electric rail_fast ship" speed="23.47" length="31.12" width="3.50" shape="1940.65,3833.64 1934.64,3830.29 1928.63,3828.00 1921.45,3826.67 1911.90,3826.25">
      <param key="origId" value="191_-1"/>
    </lane>
    <lane id=":188_0_1" index="1" disallow="pedestrian tram rail_urban rail rail_electric rail_fast ship" speed="23.47" length="31.12" width="3.50" shape="1942.47,3830.65 1936.31,3827.22 1929.90,3824.75 1922.13,3823.25 1911.90,3822.75">
      <param key="origId" value="192_-1"/>
    </lane>
  </edge>
  <edge id=":188_2" function="internal">
    <lane id=":188_2_0" index="0" disallow="pedestrian tram rail_urban rail rail_electric rail_fast ship" speed="17.88" length="31.47" width="3.50" shape="1943.37,3822.75 1911.90,3822.75">
      <param key="origId" value="189_-4"/>
    </lane>
    <lane id=":188_2_1" index="1" disallow="pedestrian tram rail_urban rail rail_electric rail_fast ship" speed="17.88" length="31.47" width="3.50" shape="1943.37,3819.25 1911.90,3819.25">
      <param key="origId" value="189_-3"/>
    </lane>
    <lane id=":188_2_2" index="2" disallow="pedestrian tram rail_urban rail rail_electric rail_fast ship" speed="17.88" length="31.47" width="3.50" shape="1943.37,3815.75 1911.90,3815.75">
      <param key="origId" value="189_-2"/>
    </lane>