<?xml version="1.0" encoding="UTF-8"?>

<configuration>

    <input>
        <net-file value="testfinal.net.xml"/>
        <route-files value="testfinal.rou.xml"/>
    </input>

    <time>
        <begin value="0"/>
        <end value="180"/>
    </time>
</configuration>

